32
Adenine
P      -0.808  -8.873  -2.080  0  0  0  0
O      -0.196 -10.198  -1.860  0  0  0  0
O      -2.029  -8.583  -1.290  0  0  0  0
O       0.270  -7.725  -1.830  0  0  0  0
O       4.189  -7.682  -0.250  0  0  0  -0.01
C       2.252  -5.410  -0.470  0  0  0  0
H       3.108  -4.880  -0.052  0  0  0  0
C       2.035  -6.740   0.240  0  0  0  0
H       2.420  -6.732   1.260  0  0  0  0
H       0.982  -7.015   0.289  0  0  0  0
C       2.818  -7.701  -0.640  0  0  0  0
H       2.437  -8.720  -0.571  0  0  0  0
C       2.608  -7.128  -2.040  0  0  0  0
H       3.470  -7.426  -2.637  0  0  0  0
C       1.364  -7.578  -2.770  0  0  0  0
H       1.104  -6.836  -3.525  0  0  0  0
H       1.561  -8.532  -3.258  0  0  0  0
O       2.530  -5.682  -1.830  0  0  0  0
N      -1.645  -0.802  -0.140  0  0  0  0
H      -1.755   0.217  -0.042  0  0  0  0.01
H      -2.476  -1.404  -0.230  0  0  0  0
C      -0.417  -1.347  -0.150  0  0  0  0
C      -0.191  -2.733  -0.280  0  0  0  0
N      -1.049  -3.808  -0.430  0  0  0  0
C      -0.253  -4.833  -0.500  0  0  0  0
H      -0.608  -5.858  -0.612  0  0  0  0
N       1.073  -4.504  -0.420  0  0  0  0
C       1.112  -3.139  -0.280  0  0  0  0
N       2.210  -2.370  -0.160  0  0  0  0
C       1.868  -1.105  -0.040  0  0  0  0
H       2.698  -0.407   0.067  0  0  0  0
N       0.658  -0.554  -0.030  0  0  0  0
bond  0  1
bond  0  2
bond  0  3
bond  3 14
bond  4 10
bond  5  6
bond  5  7
bond  5 17
bond  5 26
bond  7  8
bond  7  9
bond  7 10
bond 10 11
bond 10 12
bond 12 13
bond 12 14
bond 12 17
bond 14 15
bond 14 16
bond 18 19
bond 18 20
bond 18 21
bond 21 22
bond 21 31
bond 22 23
bond 22 27
bond 23 24
bond 24 25
bond 24 26
bond 26 27
bond 27 28
bond 28 29
bond 29 30
bond 29 31
angle  0  3 14
angle  1  0  2
angle  1  0  3
angle  2  0  3
angle  3 14 15
angle  3 14 16
angle  4 10 11
angle  5  7  8
angle  5  7  9
angle  5  7 10
angle  5 17 12
angle  5 26 27
angle  6  5  7
angle  6  5 17
angle  6  5 26
angle  7  5 17
angle  7 10 11
angle 10 12 13
angle 10 12 14
angle 10 12 17
angle 11 10 12
angle 12 14 15
angle 12 14 16
angle 13 12 14
angle 18 21 22
angle 19 18 21
angle 19 18 20
angle 20 18 21
angle 21 22 27
angle 21 31 29
angle 22 21 31
angle 22 23 24
angle 22 27 26
angle 22 27 28
angle 23 22 27
angle 23 24 25
angle 23 24 26
angle 24 26 27
angle 25 24 26
angle 27 28 29
angle 28 29 30
angle 28 29 31
torsion  1  0  3 14
torsion  2  0  3 14
torsion  0  3 14 12
torsion  3 14 12 10
torsion  4 10  7  9
torsion  6  5 26 24
torsion  8  7 10 12
torsion  8  7  5 17
torsion 14 12 10  7
torsion 12 10  7  5
torsion 13 12 14 15
torsion 10  7  5 26
torsion 10 12 17  5
torsion  7  5 26 24
torsion  7  5 26 27
torsion  7  5 17 12
torsion  5 26 24 23
torsion  5 26 27 22
torsion  5 26 27 28
torsion 22 23 24 25
torsion 26 27 28 29
torsion 27 28 29 30
torsion 26 27 22 21
torsion 27 22 21 18
torsion 22 21 18 19
torsion 22 21 18 20
torsion 28 29 31 21