14
Butane
C   2.142   1.395  -8.932  0  0  0  0
C   3.631   1.416  -8.537  0  0  0  0
C   4.203  -0.012  -8.612  0  0  0  0
C   5.691   0.009  -8.218  0  0  0  0
H   1.604   0.760  -8.260  0  0  0  0              
H   1.745   2.388  -8.880  0  0  0  0
H   2.043   1.024  -9.930  0  0  0  0              
H   4.169   2.051  -9.210  0  0  0  0
H   3.731   1.788  -7.539  0  0  0  0              
H   3.665  -0.647  -7.940  0  0  0  0
H   4.104  -0.384  -9.610  0  0  0  0
H   6.088  -0.983  -8.270  0  0  0  0
H   5.791   0.381  -7.220  0  0  0  0
H   6.230   0.644  -8.890  0  0  0  0
bond  0  1
bond  1  2
bond  2  3
bond  0  4
bond  0  5
bond  0  6
bond  1  7
bond  1  8
bond  2  9
bond  2 10
bond  3 11
bond  3 12
bond  3 13
angle  0  1  2
angle  1  2  3
angle  4  0  5
angle  5  0  6
angle  6  0  4
angle  1  0  4
angle  1  0  5
angle  1  0  6
angle 11  3 12
angle 12  3 13
angle 13  3 11
angle  2  3 11
angle  2  3 12
angle  2  3 13
angle  7  1  8
angle  9  2 10
angle  0  1  7
angle  0  1  8
angle  1  2  9
angle  1  2 10
angle  2  1  7
angle  2  1  8
angle  3  2  9
angle  3  2 10
torsion  0  1  2  3 0.1
torsion  0  1  2  9 0.02
torsion  0  1  2 10 0.02
torsion  3  2  1  7 0.02
torsion  3  2  1  8 0.02
torsion  1  2  3 11 0.02
torsion  1  2  3 12 0.02
torsion  1  2  3 13 0.02
torsion  2  1  0  4 0.02
torsion  2  1  0  5 0.02
torsion  2  1  0  6 0.02