30
Cytosine
P  -0.808  -8.873  -2.080  0  0  0  0
O  -0.196 -10.198  -1.860  0  0  0  0
O  -2.029  -8.583  -1.290  0  0  0  0
O   0.270  -7.725  -1.830  0  0  0  0
O   4.189  -7.682  -0.250  0  0  0  0
C   2.252  -5.410  -0.470  0  0  0  0
H   3.108  -4.880  -0.052  0  0  0  0
C   2.035  -6.740   0.240  0  0  0  0
H   2.420  -6.732   1.260  0  0  0  0
H   0.982  -7.015   0.289  0  0  0  0
C   2.818  -7.701  -0.640  0  0  0  0
H   2.437  -8.720  -0.571  0  0  0  0
C   2.608  -7.128  -2.040  0  0  0  0
H   3.470  -7.426  -2.637  0  0  0  0
C   1.364  -7.578  -2.770  0  0  0  0
H   1.104  -6.836  -3.525  0  0  0  0
H   1.561  -8.532  -3.258  0  0  0  0
O   2.530  -5.682  -1.830  0  0  0  0
N  -2.005  -1.896  -0.270  0  0  0  0
H  -2.978  -2.226  -0.344  0  0  0  0
H  -1.810  -0.891  -0.157  0  0  0  0
C  -1.006  -2.763  -0.320  0  0  0  0
N   0.245  -2.297  -0.220  0  0  0  0
C   1.307  -3.139  -0.270  0  0  0  0
O   2.474  -2.738  -0.180  0  0  0  0
N   1.073  -4.504  -0.420  0  0  0  0
C  -0.192  -4.986  -0.520  0  0  0  0
H  -0.346  -6.058  -0.643  0  0  0  0
C  -1.272  -4.160  -0.470  0  0  0  0
H  -2.290  -4.544  -0.541  0  0  0  0
bond  0  1
bond  0  2
bond  0  3
bond  3 14
bond  4 10
bond  5  6
bond  5  7
bond  5 17
bond  5 25
bond  7  8
bond  7  9
bond  7 10
bond 10 11
bond 10 12
bond 12 13
bond 12 14
bond 12 17
bond 14 15
bond 14 16
bond 18 19
bond 18 20
bond 18 21
bond 21 22
bond 21 28
bond 22 23
bond 23 24
bond 23 25
bond 25 26
bond 26 27
bond 26 28
bond 28 29
angle  1  0  3
angle  2  0  3
angle  0  3 14
angle  3 14 12
angle  3 14 15
angle  3 14 16
angle  7  5 17
angle 10 12 17
angle 14 12 10
angle 14 12 13
angle 12 10  4
angle 12 10 11
angle 12 17  5
angle 10  7  5
angle 10  7  8
angle 10  7  9
angle  7  5  6
angle  7  5 17
angle  7  5 25
angle  5 25 23
angle  5 25 26
angle 25 23 22
angle 25 23 24
angle 25 26 27
angle 25 26 28
angle 23 22 21
angle 26 28 21
angle 26 28 29
angle 22 21 18
angle 22 21 28
angle 28 21 18
angle 21 18 19
angle 21 18 20
torsion  1  0  3 14
torsion  2  0  3 14
torsion  0  3 14 12
torsion  0  3 14 15
torsion  0  3 14 16
torsion  3 14 12 10
torsion  3 14 12 13
torsion  3 14 12 17
torsion 14 12 10  4
torsion 14 12 10  7
torsion 14 12 10 11
torsion 14 12 17  5
torsion 12 10  7  5
torsion 12 10  7  8
torsion 12 10  7  9
torsion 12 17  5  7
torsion 10  7  5  6
torsion 10  7  5 17
torsion 10  7  5 25
torsion  7  5 25 23
torsion  7  5 25 26
torsion  5 25 23 22
torsion  5 25 23 24
torsion  5 25 26 28
torsion  5 25 26 27
torsion 25 23 22 21
torsion 25 26 28 21
torsion 25 26 28 29
torsion 23 22 21 18
torsion 26 28 21 18
torsion 28 21 18 20
torsion 22 21 18 19