9 
Ethanol
H         -2.08     0.43     0.07  0  0  0  0
C         -1.21    -0.23    -0.01  0  0  0  0
H         -1.27    -0.95     0.81  0  0  0  0
C          0.08     0.56     0.05  0  0  0  0
O          1.23    -0.27    -0.13  0  0  0  0
H          0.15     1.12     0.99  0  0  0  0
H          1.25    -0.90     0.62  0  0  0  0
H          0.13     1.28    -0.76  0  0  0  0
H         -1.27    -0.77    -0.95  0  0  0  0
bond 0 1
bond 1 3
bond 3 4
bond 2 1
bond 8 1
bond 3 5
bond 3 7
bond 4 6
angle 0 1 2
angle 0 1 8
angle 2 1 8
angle 0 1 3
angle 2 1 3
angle 8 1 3
angle 1 3 5
angle 1 3 7
angle 5 3 7
angle 4 3 5
angle 4 3 7
angle 6 4 3
torsion 6 4 3 1