8
Ethane
C   3.108   0.653  -8.526  0  0  0  0
C   4.597   0.674  -8.132  0  0  0  0
H   2.815  -0.349  -8.761  0  0  0  0
H   2.517   1.015  -7.711  0  0  0  0
H   2.956   1.278  -9.381  0  0  0  0
H   4.748   0.049  -7.277  0  0  0  0
H   5.187   0.312  -8.947  0  0  0  0
H   4.890   1.676  -7.897  0  0  0  0
bond 0 1
bond 0 2
bond 0 3
bond 0 4
bond 1 5
bond 1 6
bond 1 7
angle 2 0 3
angle 3 0 4
angle 4 0 2
angle 5 1 6
angle 6 1 7
angle 7 1 5
angle 1 0 2
angle 1 0 3
angle 1 0 4
angle 0 1 5
angle 0 1 6
angle 0 1 7
torsion 4 0 1 5 0.02
torsion 3 0 1 6 0.02
torsion 2 0 1 7 0.02