20   
Histidine
C       1.295   1.036   0.483   0  0  0  0
C       0.709  -0.204   1.156   0  0  0  0
C      -0.546  -0.625   0.429   0  0  0  0
N      -1.837  -0.208   0.700   0  0  0  0
C      -2.668  -0.842  -0.206   0  0  0  0
N      -1.919  -1.618  -1.001   0  0  0  0
C      -0.630  -1.514  -0.649   0  0  0  0
N       1.625   0.721  -0.941   0  0  0  0
C       2.550   1.457   1.209   0  0  0  0
O       2.619   2.565   1.717   0  0  0  0
O       3.534   0.659   1.292   0  0  0  0
H      -3.740  -0.730  -0.263   0  0  0  0
H       0.199  -2.027  -1.115   0  0  0  0
H      -2.119   0.439   1.422   0  0  0  0
H       1.436  -1.013   1.123   0  0  0  0
H       0.468   0.025   2.192   0  0  0  0
H       0.568   1.845   0.516   0  0  0  0
H       2.022   1.561  -1.397   0  0  0  0
H       0.765   0.433  -1.439   0  0  0  0
H       2.317  -0.048  -0.973   0  0  0  0
bond  0  1
bond  0  7
bond  0  8
bond  0 16
bond  1  2
bond  1 14
bond  1 15
bond  2  3
bond  2  6
bond  3  4
bond  3 13
bond  4  5
bond  4 11
bond  5  6
bond  6 12
bond  7 17
bond  7 18
bond  7 19
bond  8  9
bond  8 10
angle  0  1  2
angle  0  1 14
angle  0  1 15
angle  0  7 17
angle  0  7 18
angle  0  7 19
angle  0  8  9
angle  0  8 10
angle  1  0  7
angle  1  2  3
angle  1  2  6
angle  2  3  4
angle  2  3 13
angle  2  6 12
angle  3  4  5
angle  3  4 11
angle  4  5  6
angle  5  6 12
angle  7  0  8
angle  7  0 16
angle  8  0 16
torsion  0  1  2  3
torsion  0  1  2  6
torsion  1  0  8  9
torsion  1  0  8 10
torsion  1  2  3 13
torsion  1  2  6 12
torsion  2  3  4  5
torsion  2  3  4 11
torsion  3  4  5  6
torsion  4  5  6  2
torsion  4  5  6 12
torsion  8  0  1  2
torsion  8  0  1 14
torsion  8  0  1 15
torsion  8  0  7 17
torsion  8  0  7 18
torsion  8  0  7 19
torsion  9  8  0 16