22   
Isoleucine
N     0.692   1.136   1.736  0  0  0  0
C     1.032   0.024   0.840  0  0  0  0
C     2.532   0.048   0.556  0  0  0  0
O     3.248   0.916   1.056  0  0  0  0
C     0.168   0.064  -0.420  0  0  0  0
C    -1.316  -0.048  -0.068  0  0  0  0
C     0.600  -1.008  -1.420  0  0  0  0
C    -2.184  -0.004  -1.328  0  0  0  0
O     3.004  -0.904  -0.248  0  0  0  0
H    -0.200   0.956   2.168  0  0  0  0
H     0.812  -0.916   1.360  0  0  0  0
H     1.408   1.144   2.440  0  0  0  0
H     0.320   1.044  -0.900  0  0  0  0
H     0.072  -1.944  -1.200  0  0  0  0
H     1.684  -1.172  -1.332  0  0  0  0
H     0.360  -0.676  -2.440  0  0  0  0
H    -1.596   0.792   0.588  0  0  0  0
H    -1.492  -0.992   0.460  0  0  0  0
H    -1.916   0.876  -1.928  0  0  0  0
H    -3.244   0.056  -1.040  0  0  0  0
H    -2.016  -0.912  -1.920  0  0  0  0
H     0.788   1.948   1.148  0  0  0  0
bond  0  1
bond  0  9
bond  0 11
bond  0 21
bond  1  2
bond  1  4
bond  1 10
bond  2  3
bond  2  8
bond  4  5
bond  4  6
bond  4 12
bond  5  7
bond  5 16
bond  5 17
bond  6 13
bond  6 14
bond  6 15
bond  7 18
bond  7 19
bond  7 20
angle  0  1  2
angle  0  1  4
angle  0  1 10
angle  1  0  9
angle  1  0 11
angle  1  0 21
angle  1  2  3
angle  1  2  8
angle  2  1  4
angle  2  1 10
angle  1  4  5
angle  1  4  6
angle  1  4 12
angle  4  5 16
angle  4  5 17
angle  4  6 13
angle  4  6 14
angle  4  6 15
angle  5  7 18
angle  5  7 19
angle  5  7 20
angle  6  4 12
torsion  0  1  2  3
torsion  0  1  2  8
torsion  0  1  4  5
torsion  0  1  4  6
torsion  1  4  5  7
torsion  1  4  5 16
torsion  1  4  5 17
torsion  1  4  6 13
torsion  1  4  6 14
torsion  1  4  6 15
torsion  2  1  0  9
torsion  2  1  0 11
torsion  2  1  0 21
torsion  2  1  4  5
torsion  2  1  4  6
torsion  4  5  7 18
torsion  4  5  7 19
torsion  4  5  7 20
torsion  6  4  5  7
torsion 10  1  4  5
torsion 12  4  1  2