20
Methionine
N      0.208   1.900  -1.116  0  0  0  0
C      0.452   0.848  -0.120  0  0  0  0
C      1.908   0.912   0.340  0  0  0  0
O      2.672   1.760  -0.124  0  0  0  0
C      0.164  -0.528  -0.716  0  0  0  0
C     -1.288  -0.632  -1.180  0  0  0  0
S     -2.408  -0.376   0.228  0  0  0  0
C     -1.880  -1.740   1.304  0  0  0  0
O      2.288   0.016   1.252  0  0  0  0
H      0.340   1.520  -2.040  0  0  0  0
H     -0.704   2.208  -0.832  0  0  0  0
H     -0.208   1.012   0.744  0  0  0  0
H      0.876   2.636  -0.956  0  0  0  0
H      0.356  -1.296   0.044  0  0  0  0
H      0.828  -0.692  -1.576  0  0  0  0
H     -1.460  -1.632  -1.604  0  0  0  0
H     -1.480   0.128  -1.944  0  0  0  0
H     -2.672  -1.952   2.040  0  0  0  0
H     -0.960  -1.452   1.832  0  0  0  0
H     -1.692  -2.636   0.696  0  0  0  0
bond  0  1
bond  0  9
bond  0 10
bond  0 12
bond  1  2
bond  1  4
bond  1 11
bond  2  3
bond  2  8
bond  4  5
bond  4 13
bond  4 14
bond  5  6
bond  5 15
bond  5 16
bond  6  7
bond  7 17
bond  7 18
bond  7 19
angle  0  1  2
angle  0  1  4
angle  0  1 11
angle  1  0  9
angle  1  0 10
angle  1  0 12
angle  1  2  3
angle  1  2  8
angle  1  4  5
angle  1  4 13
angle  1  4 14
angle  2  1  4
angle  2  1 11
angle  4  5 15
angle  4  5 16
angle  5  6  7
angle  6  7 17
angle  6  7 18
angle  6  7 19
torsion  0  1  2  3
torsion  0  1  2  8
torsion  0  1  4  5
torsion  1  4  5  6
torsion  1  4  5 15
torsion  1  4  5 16
torsion  2  1  0  9
torsion  2  1  0 10
torsion  2  1  0 12
torsion  2  1  4 13
torsion  2  1  4 14
torsion  3  2  1  4
torsion  3  2  1 11
torsion  4  5  6  7
torsion  5  6  7 17
torsion  5  6  7 18
torsion  5  6  7 19
torsion  8  2  1  4