24
Tyrosine
N    2.024   1.736   1.380  0  0  0  0
C    2.328   1.212   0.044  0  0  0  0
C    3.412   2.076  -0.604  0  0  0  0
O    3.884   3.036  -0.000  0  0  0  0
C    1.044   1.168  -0.808  0  0  0  0
C   -0.048   0.264  -0.256  0  0  0  0
C   -1.112   0.808   0.496  0  0  0  0
C    0.000  -1.128  -0.492  0  0  0  0
C   -2.120  -0.028   1.008  0  0  0  0
C   -1.008  -1.968   0.020  0  0  0  0
C   -2.072  -1.420   0.768  0  0  0  0
O   -3.048  -2.240   1.260  0  0  0  0
O    3.820   1.720  -1.856  0  0  0  0
H    1.348   2.480   1.308  0  0  0  0
H    2.712   0.188   0.140  0  0  0  0
H    2.848   2.072   1.856  0  0  0  0
H    1.312   0.808  -1.812  0  0  0  0
H    0.648   2.188  -0.880  0  0  0  0
H   -1.152   1.876   0.680  0  0  0  0
H    0.812  -1.548  -1.068  0  0  0  0
H   -2.936   0.388   1.584  0  0  0  0
H   -0.968  -3.036  -0.164  0  0  0  0
H   -3.884  -1.788   1.228  0  0  0  0
H    1.712   0.880   1.812  0  0  0  0
bond  0  1
bond  0 13
bond  0 15
bond  0 23
bond  1  2
bond  1  4
bond  1 14
bond  2  3
bond  2 12
bond  4  5
bond  4 16
bond  4 17
bond  5  6
bond  5  7
bond  6  8
bond  6 18
bond  7  9
bond  7 19
bond  8 10
bond  8 20
bond  9 10
bond  9 21
bond 10 11
bond 11 22
angle  3  2  1
angle 12  2  1
angle  2  1  0
angle  2  1  4
angle  2  1 14
angle  0  1  4
angle  1  0 13
angle  1  0 15
angle  1  0 23
angle  1  4  5
angle  1  4 16
angle  1  4 17
angle  4  5  6
angle  4  5  7
angle  5  6  8
angle  5  6 18
angle  5  7  9
angle  5  7 19
angle  6  8 10
angle  6  8 20
angle  7  9 10
angle  7  9 21
angle  8 10  9
angle  8 10 11
angle  9 10 11
angle 10 11 22
torsion 12  2  1  0
torsion  3  2  1  4
torsion  3  2  1 14
torsion  2  1  0 13
torsion  2  1  0 15
torsion  2  1  0 23
torsion  2  1  4 16
torsion  2  1  4 17
torsion  0  1  4  5
torsion  1  4  5  6
torsion  1  4  5  7
torsion  4  5  6  8
torsion  4  5  6 18
torsion  4  5  7  9
torsion  4  5  7 19
torsion  5  6  8 10
torsion  5  6  8 20
torsion  5  7  9 10
torsion  5  7  9 21
torsion  6  8 10 11
torsion  7  9 10 11
torsion  8 10 11 22
torsion  9 10 11 22